*SPEF "IEEE 1481-1998"
*DESIGN "viterbi_top"
*DATE "Thu May 14 17:13:14 2026"
*VENDOR "Cadence Design Systems, Inc."
*PROGRAM "Innovus"
*VERSION "23.37-s090_1"
*DESIGN_FLOW "PIN_CAP NONE" "NAME_SCOPE LOCAL"
*DIVIDER /
*DELIMITER :
*BUS_DELIMITER []
*T_UNIT 1 NS
*C_UNIT 1 PF
*R_UNIT 1 OHM
*L_UNIT 1 HENRY

// MMMC spef file for corner 'rccorners'

*NAME_MAP

*1 FE_OFN33_n_193
*2 FE_OFN32_n_358
*3 FE_RN_96_0
*4 FE_OCPN30_n_624
*5 FE_RN_95_0
*6 FE_RN_94_0
*7 FE_RN_93_0
*8 FE_RN_92_0
*9 FE_RN_91_0
*10 FE_RN_90_0
*11 FE_RN_89_0
*12 FE_OCPN29_n_354
*13 FE_OCPN28_n_234
*14 FE_OCPN27_n_566
*15 CTS_5
*16 CTS_4
*17 CTS_3
*18 CTS_2
*19 CTS_1
*20 FE_OFN26_rst_n
*21 FE_RN_87_0
*22 FE_RN_86_0
*23 FE_RN_85_0
*24 FE_RN_84_0
*25 FE_OCPN24_n_551
*26 FE_OCPN22_u_acs_pm_00_1
*27 FE_RN_83_0
*28 FE_RN_82_0
*29 FE_RN_81_0
*30 FE_RN_80_0
*31 FE_RN_78_0
*32 FE_RN_77_0
*33 FE_RN_76_0
*34 FE_RN_75_0
*35 FE_RN_74_0
*36 FE_RN_73_0
*37 FE_RN_72_0
*38 FE_RN_68_0
*39 FE_RN_67_0
*40 FE_RN_66_0
*41 FE_RN_65_0
*42 FE_RN_64_0
*43 FE_RN_63_0
*44 FE_RN_61_0
*45 FE_RN_60_0
*46 FE_RN_59_0
*47 FE_RN_58_0
*48 FE_RN_57_0
*49 FE_RN_56_0
*50 FE_RN_55_0
*51 FE_RN_53_0
*52 FE_RN_52_0
*53 FE_RN_51_0
*54 FE_RN_50_0
*55 FE_RN_49_0
*56 FE_RN_48_0
*57 FE_RN_47_0
*58 FE_RN_46_0
*59 FE_RN_45_0
*60 FE_RN_44_0
*61 FE_RN_43_0
*62 FE_RN_42_0
*63 FE_RN_41_0
*64 FE_RN_40_0
*65 FE_RN_38_0
*66 FE_RN_37_0
*67 FE_RN_35_0
*68 FE_RN_33_0
*69 FE_RN_32_0
*70 FE_RN_31_0
*71 FE_RN_30_0
*72 FE_RN_28_0
*73 FE_RN_27_0
*74 FE_RN_26_0
*75 FE_RN_25_0
*76 FE_RN_24_0
*77 FE_RN_23_0
*78 FE_RN_22_0
*79 FE_RN_21_0
*80 FE_RN_20_0
*81 FE_RN_19_0
*82 FE_RN_18_0
*83 FE_RN_16_0
*84 FE_RN_15_0
*85 FE_RN_14_0
*86 FE_RN_13_0
*87 FE_RN_11_0
*88 FE_RN_10_0
*89 FE_RN_9_0
*90 FE_OCPN19_n_587
*91 FE_RN_8_0
*92 FE_OCPN16_n_193
*93 FE_RN_6_0
*94 FE_RN_5_0
*95 FE_OCPN9_n_583
*96 FE_RN_4_0
*97 FE_RN_3_0
*98 FE_RN_2_0
*99 FE_RN_1_0
*100 FE_OCPN8_n_484
*101 FE_OCPN6_w_valid_1
*102 FE_OCPN5_w_valid_1
*103 FE_OFN4_n_372
*104 FE_OFN3_w_sof_1
*105 clk
*106 rst_n
*107 i_start
*108 i_data[15]
*109 i_data[14]
*110 i_data[13]
*111 i_data[12]
*112 i_data[11]
*113 i_data[10]
*114 i_data[9]
*115 i_data[8]
*116 i_data[7]
*117 i_data[6]
*118 i_data[5]
*119 i_data[4]
*120 i_data[3]
*121 i_data[2]
*122 i_data[1]
*123 i_data[0]
*124 o_data[7]
*125 o_data[6]
*126 o_data[5]
*127 o_data[4]
*128 o_data[3]
*129 o_data[2]
*130 o_data[1]
*131 o_data[0]
*132 o_done
*133 u_acs_pm_01[4]
*134 u_acs_pm_01[3]
*135 u_acs_pm_01[2]
*136 u_acs_pm_01[1]
*137 u_acs_pm_01[0]
*138 w_slt_node[1]
*139 w_slt_node[0]
*140 u_acs_pm_11[4]
*141 u_acs_pm_11[3]
*142 u_acs_pm_11[2]
*143 u_acs_pm_11[1]
*144 u_acs_pm_11[0]
*145 w_prev_st_01[1]
*146 w_prev_st_01[0]
*147 u_acs_pm_10[4]
*148 u_acs_pm_10[3]
*149 u_acs_pm_10[2]
*150 u_acs_pm_10[1]
*151 u_acs_pm_10[0]
*152 w_prev_st_11[0]
*153 u_acs_pm_00[4]
*154 u_acs_pm_00[3]
*155 u_acs_pm_00[2]
*156 u_acs_pm_00[1]
*157 u_acs_pm_00[0]
*158 w_prev_st_10[0]
*159 w_prev_st_00[0]
*160 u_memory_r1_t3[1]
*161 u_memory_r1_t3[0]
*162 u_memory_r0_t3[0]
*163 u_memory_r3_t3[0]
*164 u_memory_r2_t3[0]
*165 u_memory_trace[2]
*166 u_memory_trace[1]
*167 u_memory_trace[0]
*168 u_memory_r0_t5[0]
*169 u_memory_r1_t2[1]
*170 u_memory_r1_t2[0]
*171 u_memory_r2_t6[0]
*172 u_memory_r3_t5[0]
*173 u_memory_r1_t6[1]
*174 u_memory_r1_t6[0]
*175 u_memory_r0_t1[0]
*176 u_memory_r0_t2[0]
*177 u_memory_r0_t4[0]
*178 u_memory_r1_t1[1]
*179 u_memory_r1_t1[0]
*180 u_memory_r0_t6[0]
*181 u_memory_r2_t1[0]
*182 u_memory_r1_t4[1]
*183 u_memory_r1_t4[0]
*184 u_memory_r1_t5[1]
*185 u_memory_r1_t5[0]
*186 u_memory_r2_t2[0]
*187 u_memory_r3_t4[0]
*188 u_memory_r3_t2[0]
*189 u_memory_r3_t6[0]
*190 u_memory_r2_t4[0]
*191 u_memory_r2_t5[0]
*192 u_memory_r3_t1[0]
*193 u_memory_r1_t0[1]
*194 u_memory_r1_t0[0]
*195 u_memory_r0_t0[0]
*196 u_memory_r1_t7[1]
*197 u_memory_r1_t7[0]
*198 u_memory_r2_t0[0]
*199 u_memory_r0_t7[0]
*200 u_memory_r3_t7[0]
*201 u_memory_r2_t7[0]
*202 u_memory_r3_t0[0]
*203 u_memory_count[2]
*204 u_memory_count[1]
*205 u_memory_count[0]
*206 u_traceback_current_node[1]
*207 u_traceback_current_node[0]
*208 u_extract_shift_reg[15]
*209 u_extract_shift_reg[14]
*210 u_extract_shift_reg[13]
*211 u_extract_shift_reg[12]
*212 u_extract_shift_reg[11]
*213 u_extract_shift_reg[10]
*214 u_extract_shift_reg[9]
*215 u_extract_shift_reg[8]
*216 u_extract_shift_reg[7]
*217 u_extract_shift_reg[6]
*218 u_extract_shift_reg[5]
*219 u_extract_shift_reg[4]
*220 u_extract_shift_reg[3]
*221 u_extract_shift_reg[2]
*222 u_extract_shift_reg[1]
*223 u_extract_shift_reg[0]
*224 u_traceback_temp_data[7]
*225 u_traceback_temp_data[6]
*226 u_traceback_temp_data[5]
*227 u_traceback_temp_data[4]
*228 u_traceback_temp_data[3]
*229 u_traceback_temp_data[2]
*230 u_traceback_temp_data[1]
*231 u_traceback_temp_data[0]
*232 u_traceback_count[3]
*233 u_traceback_count[2]
*234 u_traceback_count[1]
*235 u_traceback_count[0]
*236 u_extract_count[2]
*237 u_extract_count[1]
*238 u_extract_count[0]
*239 UNCONNECTED
*240 UNCONNECTED0
*241 UNCONNECTED1
*242 UNCONNECTED2
*243 UNCONNECTED3
*244 UNCONNECTED4
*245 UNCONNECTED5
*246 UNCONNECTED6
*247 UNCONNECTED7
*248 UNCONNECTED8
*249 UNCONNECTED9
*250 UNCONNECTED10
*251 UNCONNECTED11
*252 UNCONNECTED12
*253 UNCONNECTED13
*254 UNCONNECTED14
*255 UNCONNECTED15
*256 UNCONNECTED16
*257 UNCONNECTED17
*258 UNCONNECTED18
*259 UNCONNECTED19
*260 UNCONNECTED20
*261 UNCONNECTED21
*262 UNCONNECTED22
*263 UNCONNECTED23
*264 UNCONNECTED24
*265 UNCONNECTED25
*266 UNCONNECTED26
*267 UNCONNECTED27
*268 UNCONNECTED28
*269 UNCONNECTED29
*270 UNCONNECTED30
*271 UNCONNECTED31
*272 UNCONNECTED32
*273 UNCONNECTED33
*274 UNCONNECTED34
*275 UNCONNECTED35
*276 UNCONNECTED36
*277 UNCONNECTED37
*278 UNCONNECTED38
*279 UNCONNECTED39
*280 UNCONNECTED40
*281 UNCONNECTED41
*282 UNCONNECTED42
*283 UNCONNECTED43
*284 UNCONNECTED44
*285 UNCONNECTED45
*286 UNCONNECTED46
*287 UNCONNECTED47
*288 UNCONNECTED48
*289 UNCONNECTED49
*290 UNCONNECTED50
*291 UNCONNECTED51
*292 UNCONNECTED52
*293 UNCONNECTED53
*294 UNCONNECTED54
*295 UNCONNECTED55
*296 UNCONNECTED56
*297 UNCONNECTED57
*298 UNCONNECTED58
*299 UNCONNECTED59
*300 UNCONNECTED60
*301 UNCONNECTED61
*302 UNCONNECTED62
*303 UNCONNECTED63
*304 UNCONNECTED64
*305 UNCONNECTED65
*306 UNCONNECTED66
*307 UNCONNECTED67
*308 UNCONNECTED68
*309 UNCONNECTED69
*310 UNCONNECTED70
*311 UNCONNECTED71
*312 UNCONNECTED72
*313 UNCONNECTED73
*314 UNCONNECTED74
*315 UNCONNECTED75
*316 UNCONNECTED76
*317 UNCONNECTED77
*318 UNCONNECTED78
*319 UNCONNECTED79
*320 UNCONNECTED80
*321 UNCONNECTED81
*322 UNCONNECTED82
*323 UNCONNECTED83
*324 UNCONNECTED84
*325 UNCONNECTED85
*326 n_0
*327 n_1
*328 n_2
*329 n_3
*330 n_4
*331 n_5
*332 n_6
*333 n_7
*334 n_8
*335 n_9
*336 n_10
*337 n_11
*338 n_12
*339 n_13
*340 n_14
*341 n_15
*342 n_16
*343 n_17
*344 n_18
*345 n_19
*346 n_20
*347 n_21
*348 n_22
*349 n_24
*350 n_25
*351 n_26
*352 n_27
*353 n_28
*354 n_29
*355 n_30
*356 n_31
*357 n_32
*358 n_33
*359 n_34
*360 n_35
*361 n_36
*362 n_37
*363 n_38
*364 n_39
*365 n_40
*366 n_41
*367 n_42
*368 n_43
*369 n_45
*370 n_46
*371 n_47
*372 n_48
*373 n_49
*374 n_51
*375 n_52
*376 n_53
*377 n_54
*378 n_55
*379 n_56
*380 n_57
*381 n_59
*382 n_60
*383 n_61
*384 n_62
*385 n_63
*386 n_64
*387 n_65
*388 n_67
*389 n_69
*390 n_70
*391 n_71
*392 n_72
*393 n_73
*394 n_74
*395 n_75
*396 n_76
*397 n_77
*398 n_78
*399 n_79
*400 n_80
*401 n_81
*402 n_82
*403 n_83
*404 n_84
*405 n_85
*406 n_86
*407 n_87
*408 n_88
*409 n_89
*410 n_90
*411 n_91
*412 n_92
*413 n_93
*414 n_94
*415 n_95
*416 n_96
*417 n_97
*418 n_98
*419 n_99
*420 n_100
*421 n_101
*422 n_102
*423 n_103
*424 n_104
*425 n_105
*426 n_106
*427 n_107
*428 n_108
*429 n_109
*430 n_110
*431 n_111
*432 n_112
*433 n_113
*434 n_114
*435 n_115
*436 n_116
*437 n_117
*438 n_118
*439 n_119
*440 n_121
*441 n_122
*442 n_123
*443 n_124
*444 n_125
*445 n_128
*446 n_129
*447 n_130
*448 n_131
*449 n_132
*450 n_133
*451 n_134
*452 n_135
*453 n_136
*454 n_137
*455 n_138
*456 n_139
*457 n_140
*458 n_141
*459 n_142
*460 n_143
*461 n_144
*462 n_145
*463 n_146
*464 n_148
*465 n_149
*466 n_150
*467 n_151
*468 n_152
*469 n_153
*470 n_154
*471 n_155
*472 n_156
*473 n_157
*474 n_158
*475 n_159
*476 n_160
*477 n_161
*478 n_162
*479 n_163
*480 n_164
*481 n_165
*482 n_166
*483 n_167
*484 n_168
*485 n_169
*486 n_170
*487 n_171
*488 n_172
*489 n_175
*490 n_176
*491 n_177
*492 n_178
*493 n_179
*494 n_180
*495 n_181
*496 n_184
*497 n_185
*498 n_186
*499 n_187
*500 n_188
*501 n_192
*502 n_193
*503 n_194
*504 n_195
*505 n_196
*506 n_197
*507 n_198
*508 n_201
*509 n_202
*510 n_203
*511 n_205
*512 n_207
*513 n_208
*514 n_209
*515 n_210
*516 n_211
*517 n_214
*518 n_215
*519 n_216
*520 n_217
*521 n_218
*522 n_219
*523 n_220
*524 n_221
*525 n_222
*526 n_223
*527 n_224
*528 n_225
*529 n_228
*530 n_229
*531 n_230
*532 n_231
*533 n_232
*534 n_233
*535 n_234
*536 n_235
*537 n_236
*538 n_239
*539 n_240
*540 n_241
*541 n_242
*542 n_243
*543 n_244
*544 n_245
*545 n_246
*546 n_247
*547 n_248
*548 n_249
*549 n_250
*550 n_251
*551 n_252
*552 n_253
*553 n_255
*554 n_256
*555 n_258
*556 n_259
*557 n_261
*558 n_262
*559 n_263
*560 n_265
*561 n_266
*562 n_267
*563 n_268
*564 n_269
*565 n_270
*566 n_271
*567 n_272
*568 n_273
*569 n_274
*570 n_275
*571 n_276
*572 n_277
*573 n_278
*574 n_279
*575 n_280
*576 n_281
*577 n_282
*578 n_284
*579 n_285
*580 n_286
*581 n_287
*582 n_288
*583 n_289
*584 n_290
*585 n_291
*586 n_293
*587 n_294
*588 n_295
*589 n_296
*590 n_297
*591 n_298
*592 n_299
*593 n_300
*594 n_302
*595 n_303
*596 n_304
*597 n_305
*598 n_307
*599 n_308
*600 n_309
*601 n_310
*602 n_312
*603 n_313
*604 n_314
*605 n_315
*606 n_316
*607 n_317
*608 n_318
*609 n_319
*610 n_320
*611 n_321
*612 n_322
*613 n_324
*614 n_325
*615 n_326
*616 n_327
*617 n_328
*618 n_329
*619 n_330
*620 n_331
*621 n_332
*622 n_333
*623 n_334
*624 n_335
*625 n_336
*626 n_337
*627 n_338
*628 n_339
*629 n_340
*630 n_342
*631 n_343
*632 n_344
*633 n_345
*634 n_346
*635 n_347
*636 n_348
*637 n_349
*638 n_350
*639 n_351
*640 n_352
*641 n_353
*642 n_354
*643 n_355
*644 n_356
*645 n_357
*646 n_358
*647 n_359
*648 n_360
*649 n_361
*650 n_362
*651 n_363
*652 n_364
*653 n_365
*654 n_366
*655 n_367
*656 n_368
*657 n_369
*658 n_370
*659 n_371
*660 n_372
*661 n_373
*662 n_374
*663 n_375
*664 n_376
*665 n_377
*666 n_378
*667 n_379
*668 n_380
*669 n_381
*670 n_382
*671 n_383
*672 n_384
*673 n_385
*674 n_386
*675 n_387
*676 n_388
*677 n_389
*678 n_390
*679 n_391
*680 n_392
*681 n_393
*682 n_394
*683 n_395
*684 n_396
*685 n_398
*686 n_399
*687 n_400
*688 n_401
*689 n_402
*690 n_403
*691 n_404
*692 n_405
*693 n_406
*694 n_407
*695 n_408
*696 n_409
*697 n_410
*698 n_411
*699 n_412
*700 n_413
*701 n_414
*702 n_415
*703 n_416
*704 n_417
*705 n_418
*706 n_419
*707 n_420
*708 n_421
*709 n_422
*710 n_423
*711 n_424
*712 n_425
*713 n_426
*714 n_427
*715 n_428
*716 n_429
*717 n_430
*718 n_431
*719 n_432
*720 n_433
*721 n_434
*722 n_435
*723 n_436
*724 n_437
*725 n_438
*726 n_439
*727 n_440
*728 n_441
*729 n_442
*730 n_443
*731 n_444
*732 n_446
*733 n_447
*734 n_448
*735 n_449
*736 n_450
*737 n_451
*738 n_452
*739 n_453
*740 n_454
*741 n_455
*742 n_456
*743 n_457
*744 n_458
*745 n_459
*746 n_461
*747 n_462
*748 n_463
*749 n_464
*750 n_465
*751 n_466
*752 n_467
*753 n_468
*754 n_469
*755 n_470
*756 n_472
*757 n_473
*758 n_474
*759 n_475
*760 n_476
*761 n_477
*762 n_478
*763 n_479
*764 n_480
*765 n_481
*766 n_483
*767 n_484
*768 n_485
*769 n_486
*770 n_487
*771 n_488
*772 n_489
*773 n_490
*774 n_492
*775 n_493
*776 n_494
*777 n_496
*778 n_497
*779 n_498
*780 n_499
*781 n_500
*782 n_501
*783 n_502
*784 n_503
*785 n_504
*786 n_505
*787 n_507
*788 n_508
*789 n_509
*790 n_510
*791 n_512
*792 n_514
*793 n_515
*794 n_516
*795 n_517
*796 n_519
*797 n_520
*798 n_521
*799 n_522
*800 n_524
*801 n_525
*802 n_526
*803 n_527
*804 n_530
*805 n_531
*806 n_532
*807 n_534
*808 n_536
*809 n_537
*810 n_538
*811 n_539
*812 n_540
*813 n_541
*814 n_542
*815 n_543
*816 n_544
*817 n_545
*818 n_546
*819 n_547
*820 n_549
*821 n_550
*822 n_551
*823 n_552
*824 n_553
*825 n_554
*826 n_555
*827 n_557
*828 n_558
*829 n_559
*830 n_561
*831 n_562
*832 n_563
*833 n_564
*834 n_565
*835 n_566
*836 n_567
*837 n_568
*838 n_569
*839 n_570
*840 n_571
*841 n_572
*842 n_574
*843 n_575
*844 n_576
*845 n_577
*846 n_578
*847 n_579
*848 n_580
*849 n_581
*850 n_582
*851 n_584
*852 n_585
*853 n_588
*854 n_589
*855 n_590
*856 n_591
*857 n_593
*858 n_594
*859 n_595
*860 n_616
*861 n_617
*862 n_618
*863 n_619
*864 n_620
*865 n_621
*866 n_622
*867 n_623
*868 n_624
*869 n_625
*870 n_626
*871 n_627
*872 n_629
*873 u_acs_o_valid_d1
*874 u_memory_read_hold
*875 u_memory_read_mode
*876 u_traceback_tracing
*877 w_memory_done
*878 w_sof_1
*879 w_sof_3
*880 w_valid_1
*881 w_valid_3
*882 FE_RC_217_0
*883 FE_RC_216_0
*884 FE_OFC83_n_29
*885 FE_OFC82_n_193
*886 FE_OFC81_n_193
*887 FE_OFC80_n_216
*888 FE_OFC79_n_205
*889 FE_OFC78_n_209
*890 FE_OFC77_FE_RN_68_0
*891 FE_OFC76_n_484
*892 FE_OFC75_n_358
*893 FE_OFC74_n_358
*894 FE_OFC73_n_357
*895 FE_OFC72_n_376
*896 FE_OFC71_n_531
*897 FE_OFC70_n_515
*898 FE_OFC69_n_505
*899 FE_OFC68_n_541
*900 FE_OFC67_FE_RN_50_0
*901 FE_OFC66_FE_OCPN19_n_587
*902 FE_RC_215_0
*903 FE_RC_214_0
*904 FE_RC_213_0
*905 FE_RC_212_0
*906 FE_RC_211_0
*907 FE_RC_210_0
*908 FE_OCPC64_n_624
*909 FE_RC_209_0
*910 FE_RC_208_0
*911 FE_RC_207_0
*912 FE_RC_206_0
*913 FE_RC_205_0
*914 FE_RC_204_0
*915 FE_RC_203_0
*916 FE_RC_202_0
*917 FE_RC_201_0
*918 FE_RC_200_0
*919 FE_RC_198_0
*920 FE_RC_197_0
*921 FE_OCPC63_n_354
*922 FE_RC_196_0
*923 FE_RC_195_0
*924 FE_RC_194_0
*925 FE_RC_193_0
*926 FE_RC_192_0
*927 FE_RC_191_0
*928 FE_OCPC62_n_234
*929 FE_OCPC61_n_566
*930 FE_OFC59_n_317
*931 CTS_ccl_a_buf_00005
*932 CTS_ccl_a_buf_00004
*933 CTS_ccl_a_buf_00003
*934 CTS_ccl_a_buf_00002
*935 CTS_ccl_a_buf_00001
*936 FE_OFC58_rst_n
*937 FE_OFC57_FE_OCPN6_w_valid_1
*938 FE_OFC56_FE_OCPN6_w_valid_1
*939 FE_OFC55_FE_OCPN6_w_valid_1
*940 FE_OFC54_FE_OCPN6_w_valid_1
*941 FE_OFC45_n_276
*942 FE_OFC43_n_356
*943 FE_OFC41_n_492
*944 FE_OFC40_n_494
*945 FE_RC_190_0
*946 FE_RC_189_0
*947 FE_RC_188_0
*948 FE_RC_187_0
*949 FE_RC_186_0
*950 FE_RC_185_0
*951 FE_RC_183_0
*952 FE_RC_182_0
*953 FE_RC_181_0
*954 FE_RC_180_0
*955 FE_RC_179_0
*956 FE_OCPC36_n_551
*957 FE_RC_178_0
*958 FE_RC_177_0
*959 FE_RC_176_0
*960 FE_RC_174_0
*961 FE_RC_173_0
*962 FE_OCPC34_u_acs_pm_00_1
*963 FE_RC_171_0
*964 FE_RC_170_0
*965 FE_RC_169_0
*966 FE_RC_168_0
*967 FE_RC_164_0
*968 FE_RC_163_0
*969 FE_RC_162_0
*970 FE_RC_161_0
*971 FE_RC_160_0
*972 FE_RC_158_0
*973 FE_RC_157_0
*974 FE_RC_156_0
*975 FE_RC_155_0
*976 FE_RC_154_0
*977 FE_RC_153_0
*978 FE_RC_151_0
*979 FE_RC_147_0
*980 FE_RC_146_0
*981 FE_RC_145_0
*982 FE_RC_144_0
*983 FE_RC_143_0
*984 FE_RC_142_0
*985 FE_RC_141_0
*986 FE_RC_140_0
*987 FE_RC_138_0
*988 FE_RC_137_0
*989 FE_OCPC32_w_valid_1
*990 FE_RC_136_0
*991 FE_RC_133_0
*992 FE_RC_132_0
*993 FE_RC_131_0
*994 FE_RC_130_0
*995 FE_RC_129_0
*996 FE_RC_128_0
*997 FE_RC_127_0
*998 FE_RC_126_0
*999 FE_RC_125_0
*1000 FE_RC_124_0
*1001 FE_RC_123_0
*1002 FE_RC_122_0
*1003 FE_RC_121_0
*1004 FE_RC_119_0
*1005 FE_RC_117_0
*1006 FE_RC_116_0
*1007 FE_RC_115_0
*1008 FE_RC_114_0
*1009 FE_RC_113_0
*1010 FE_RC_111_0
*1011 FE_RC_110_0
*1012 FE_RC_106_0
*1013 FE_RC_105_0
*1014 FE_RC_104_0
*1015 FE_RC_101_0
*1016 FE_RC_100_0
*1017 FE_RC_99_0
*1018 FE_RC_98_0
*1019 FE_RC_97_0
*1020 FE_RC_96_0
*1021 FE_RC_95_0
*1022 FE_RC_93_0
*1023 FE_RC_92_0
*1024 FE_RC_91_0
*1025 FE_RC_90_0
*1026 FE_RC_89_0
*1027 FE_RC_87_0
*1028 FE_RC_85_0
*1029 FE_RC_84_0
*1030 FE_RC_81_0
*1031 FE_RC_80_0
*1032 FE_RC_76_0
*1033 FE_RC_75_0
*1034 FE_RC_74_0
*1035 FE_RC_72_0
*1036 FE_RC_71_0
*1037 FE_RC_70_0
*1038 FE_RC_69_0
*1039 FE_RC_68_0
*1040 FE_RC_67_0
*1041 FE_RC_64_0
*1042 FE_RC_63_0
*1043 FE_RC_62_0
*1044 FE_RC_61_0
*1045 FE_RC_59_0
*1046 FE_RC_58_0
*1047 FE_RC_57_0
*1048 FE_RC_55_0
*1049 FE_RC_54_0
*1050 FE_RC_53_0
*1051 FE_RC_52_0
*1052 FE_RC_51_0
*1053 FE_RC_48_0
*1054 FE_RC_46_0
*1055 FE_RC_44_0
*1056 FE_RC_41_0
*1057 FE_RC_38_0
*1058 FE_RC_37_0
*1059 FE_RC_36_0
*1060 FE_RC_35_0
*1061 FE_RC_32_0
*1062 FE_RC_30_0
*1063 FE_RC_29_0
*1064 FE_RC_28_0
*1065 FE_RC_26_0
*1066 FE_RC_25_0
*1067 FE_RC_23_0
*1068 FE_RC_22_0
*1069 FE_RC_21_0
*1070 FE_RC_20_0
*1071 FE_RC_17_0
*1072 FE_RC_16_0
*1073 FE_RC_15_0
*1074 FE_RC_13_0
*1075 FE_RC_12_0
*1076 FE_RC_11_0
*1077 FE_RC_10_0
*1078 FE_RC_9_0
*1079 FE_RC_8_0
*1080 FE_RC_7_0
*1081 FE_RC_5_0
*1082 FE_OCPC15_w_valid_1
*1083 FE_OFC12_n_372
*1084 FE_OFC11_w_sof_1
*1085 FE_OFC6_n_623
*1086 FE_OFC5_n_546
*1087 u_acs_pm_01_reg\[1\]
*1088 u_acs_slt_node_reg\[1\]
*1089 u_acs_pm_01_reg\[3\]
*1090 u_acs_pm_11_reg\[3\]
*1091 u_acs_pm_01_reg\[2\]
*1092 u_acs_pm_01_reg\[0\]
*1093 u_acs_pm_01_reg\[4\]
*1094 u_acs_pm_11_reg\[4\]
*1095 u_acs_pm_11_reg\[1\]
*1096 u_acs_pm_11_reg\[0\]
*1097 u_acs_pm_11_reg\[2\]
*1098 g11998__8428
*1099 g12021__1617
*1100 g12020__2802
*1101 u_acs_slt_node_reg\[0\]
*1102 u_acs_prev_st_01_reg\[0\]
*1103 u_acs_pm_10_reg\[1\]
*1104 u_acs_pm_10_reg\[3\]
*1105 u_acs_prev_st_11_reg\[0\]
*1106 u_acs_pm_10_reg\[0\]
*1107 u_acs_pm_00_reg\[3\]
*1108 u_acs_pm_00_reg\[4\]
*1109 g12018__1881
*1110 u_acs_pm_10_reg\[2\]
*1111 u_acs_pm_00_reg\[1\]
*1112 u_acs_pm_10_reg\[4\]
*1113 g12039__6161
*1114 g12038__9315
*1115 g12019__9945
*1116 g12028__2346
*1117 g12025
*1118 g12043__2398
*1119 g12040__5107
*1120 u_acs_pm_00_reg\[0\]
*1121 u_acs_pm_00_reg\[2\]
*1122 g12029__6260
*1123 u_acs_prev_st_10_reg\[0\]
*1124 g12049__8428
*1125 u_acs_prev_st_00_reg\[0\]
*1126 g12042__1617
*1127 g12044__2802
*1128 g12045__1705
*1129 g12056__7098
*1130 g12063__7482
*1131 g12062__4733
*1132 g12092__9315
*1133 g12054__9945
*1134 g12060
*1135 g12064__5477
*1136 g12109__5107
*1137 g12069__6260
*1138 g12077__4319
*1139 g12071__6783
*1140 g12075__3680
*1141 g12076__1617
*1142 g12116__1705
*1143 g12085__7098
*1144 g12086__6131
*1145 g12087__1881
*1146 g12125__5115
*1147 g12091__6161
*1148 g12131__9945
*1149 u_memory_read_hold_reg
*1150 u_memory_read_mode_reg
*1151 g12110
*1152 u_memory_r1_t3_reg\[0\]
*1153 u_memory_r0_t3_reg\[0\]
*1154 g12094__1666
*1155 g12132__6417
*1156 g12130__5477
*1157 u_memory_r1_t3_reg\[1\]
*1158 u_memory_r3_t3_reg\[0\]
*1159 u_memory_r2_t3_reg\[0\]
*1160 u_memory_trace_reg\[0\]
*1161 g12218__5107
*1162 g12217__6260
*1163 u_memory_r0_t5_reg\[0\]
*1164 u_memory_r1_t2_reg\[0\]
*1165 u_memory_r2_t6_reg\[0\]
*1166 u_memory_r3_t5_reg\[0\]
*1167 u_memory_r1_t6_reg\[1\]
*1168 u_memory_r1_t6_reg\[0\]
*1169 u_memory_r0_t1_reg\[0\]
*1170 u_memory_r0_t2_reg\[0\]
*1171 u_memory_r0_t4_reg\[0\]
*1172 u_memory_r1_t1_reg\[0\]
*1173 u_memory_r0_t6_reg\[0\]
*1174 u_memory_r2_t1_reg\[0\]
*1175 g12134
*1176 g12143__8428
*1177 u_memory_r1_t4_reg\[1\]
*1178 u_memory_r1_t5_reg\[1\]
*1179 u_memory_r2_t2_reg\[0\]
*1180 u_memory_r3_t4_reg\[0\]
*1181 u_memory_r3_t2_reg\[0\]
*1182 u_memory_r3_t6_reg\[0\]
*1183 u_memory_r2_t4_reg\[0\]
*1184 u_memory_r2_t5_reg\[0\]
*1185 u_memory_r3_t1_reg\[0\]
*1186 u_memory_r1_t5_reg\[0\]
*1187 u_memory_r1_t1_reg\[1\]
*1188 u_memory_r1_t2_reg\[1\]
*1189 g12139
*1190 u_memory_r1_t4_reg\[0\]
*1191 u_memory_trace_reg\[2\]
*1192 g12244
*1193 g12118__5526
*1194 g12099__6783
*1195 g12279__1617
*1196 g12278__2802
*1197 g12275__1705
*1198 g12276__5122
*1199 g12277__8246
*1200 g12105__1881
*1201 u_memory_r1_t0_reg\[1\]
*1202 u_memory_r0_t0_reg\[0\]
*1203 u_memory_r1_t7_reg\[1\]
*1204 u_memory_r2_t0_reg\[0\]
*1205 u_memory_r0_t7_reg\[0\]
*1206 u_memory_r1_t7_reg\[0\]
*1207 u_memory_r3_t7_reg\[0\]
*1208 u_memory_r2_t7_reg\[0\]
*1209 u_memory_r1_t0_reg\[0\]
*1210 u_memory_r3_t0_reg\[0\]
*1211 g12137__4733
*1212 u_memory_count_reg\[1\]
*1213 u_memory_trace_reg\[1\]
*1214 g12256__6161
*1215 g12248__9315
*1216 g12249__9945
*1217 g12250__2883
*1218 g12252__2346
*1219 g12254__1666
*1220 g12255__7410
*1221 g12314
*1222 g12257__6417
*1223 g12259__5477
*1224 g12263__2398
*1225 g12260__5107
*1226 g12261__6260
*1227 g12262__4319
*1228 g12096__8428
*1229 g12264__5526
*1230 g12286__6783
*1231 g12287__3680
*1232 g12290__1617
*1233 g12291__2802
*1234 g12292__1705
*1235 g12293__5122
*1236 g12295__8246
*1237 g12296__7098
*1238 g12298__6131
*1239 g12299__1881
*1240 g12300__5115
*1241 g12135__7482
*1242 g12265__4733
*1243 g12146
*1244 g12281__9315
*1245 g12253__9945
*1246 g12288__2883
*1247 g12108__2346
*1248 g12280__1666
*1249 g12243
*1250 g12282__7410
*1251 g12283__6417
*1252 g12284__5477
*1253 g12285__2398
*1254 g12289__6260
*1255 g12151__4319
*1256 g12294__8428
*1257 g12297__5526
*1258 g12317__6783
*1259 g12122__3680
*1260 g12308__1617
*1261 g12323__2802
*1262 g12148__1705
*1263 g12167__5122
*1264 g12140__8246
*1265 g12251__1881
*1266 g12136__5115
*1267 g12107__7482
*1268 u_traceback_current_node_reg\[0\]
*1269 g12150__4733
*1270 g12149__6161
*1271 g12156__9315
*1272 g12158__9945
*1273 g12334__2883
*1274 g12121__2346
*1275 g12231__1666
*1276 g12326
*1277 u_memory_count_reg\[2\]
*1278 g12333__6417
*1279 g12332__5477
*1280 u_memory_count_reg\[0\]
*1281 g12175__2398
*1282 g12174__5107
*1283 g12162__6260
*1284 g12152__4319
*1285 g12335__5526
*1286 g12336__6783
*1287 g12352__3680
*1288 g12258__1617
*1289 g12112__2802
*1290 g12214__5122
*1291 g12268__7098
*1292 g12354
*1293 g12145__7482
*1294 g12123__4733
*1295 g12178__6161
*1296 g12168__9315
*1297 g12331__9945
*1298 g12337__2883
*1299 g12353
*1300 g12347__2346
*1301 g12213__1666
*1302 g12343__7410
*1303 g12341__6417
*1304 g12211
*1305 g12229__5477
*1306 g12212
*1307 g12238__2398
*1308 g12376__5107
*1309 g12157__6260
*1310 g12358
*1311 g12363__4319
*1312 g12166
*1313 g12176__8428
*1314 g12361__5526
*1315 g12159__6783
*1316 g12219__2802
*1317 g12307__1705
*1318 g12266__5122
*1319 g12237__8246
*1320 g12245
*1321 g12236__7098
*1322 g12235__6131
*1323 g12240__1881
*1324 g12129
*1325 g12360__5115
*1326 g12173
*1327 g12364__7482
*1328 g12154
*1329 g12370__4733
*1330 g12163__6161
*1331 g12138__9315
*1332 g12369__9945
*1333 g12318__2883
*1334 g12271__1666
*1335 g12270__7410
*1336 g12273__5477
*1337 g12321__2398
*1338 g12180__5107
*1339 g12141__6260
*1340 g12179__4319
*1341 g12403
*1342 g12170__8428
*1343 g12346__3680
*1344 g12309__1617
*1345 g12272__2802
*1346 g12302__1705
*1347 g12351__5122
*1348 g12378__8246
*1349 g12374__6131
*1350 g12382__1881
*1351 g12399
*1352 g12409__5115
*1353 g12416__7482
*1354 g12413__4733
*1355 g12305__6161
*1356 g12306__9315
*1357 g12239__2346
*1358 g12241__1666
*1359 g12316__6417
*1360 g12338
*1361 g12410__5477
*1362 g12324__2398
*1363 g12325__5107
*1364 g12344__8428
*1365 g12322__5526
*1366 g12328__6783
*1367 g12377__3680
*1368 g12375__1617
*1369 g12380__2802
*1370 g12348__1705
*1371 g12327__8246
*1372 g12330__7098
*1373 g12406__5115
*1374 g12350__7482
*1375 g12356
*1376 u_acs_o_sof_reg
*1377 u_acs_o_valid_reg
*1378 u_traceback_current_node_reg\[1\]
*1379 u_acs_prev_st_01_reg\[1\]
*1380 g12404__9945
*1381 g12437__2346
*1382 g12476__1666
*1383 g12466__7410
*1384 g12366__6417
*1385 g12383__5477
*1386 g12365__2398
*1387 g12415__6260
*1388 g12470__4319
*1389 g12469__8428
*1390 g12417
*1391 g12511__1617
*1392 g12479__2802
*1393 g12418
*1394 g12424__1705
*1395 g12421
*1396 g12516__8246
*1397 g12419
*1398 g12513__1881
*1399 u_extract_shift_reg_reg\[13\]
*1400 u_extract_shift_reg_reg\[7\]
*1401 u_extract_shift_reg_reg\[11\]
*1402 u_extract_shift_reg_reg\[14\]
*1403 u_extract_shift_reg_reg\[15\]
*1404 u_traceback_temp_data_reg\[7\]
*1405 u_extract_shift_reg_reg\[12\]
*1406 u_extract_shift_reg_reg\[2\]
*1407 u_extract_shift_reg_reg\[9\]
*1408 u_extract_shift_reg_reg\[4\]
*1409 u_extract_shift_reg_reg\[10\]
*1410 u_extract_shift_reg_reg\[5\]
*1411 u_extract_shift_reg_reg\[8\]
*1412 u_extract_shift_reg_reg\[6\]
*1413 u_extract_shift_reg_reg\[3\]
*1414 g12430__5115
*1415 g12429__7482
*1416 g12428__4733
*1417 g12435__6161
*1418 g12538__9315
*1419 u_traceback_o_done_reg
*1420 u_traceback_count_reg\[1\]
*1421 g12425__2883
*1422 g12423__2346
*1423 u_extract_shift_reg_reg\[1\]
*1424 u_extract_shift_reg_reg\[0\]
*1425 u_traceback_count_reg\[2\]
*1426 g12431__1666
*1427 u_traceback_count_reg\[3\]
*1428 g12439
*1429 g12514__7410
*1430 g12533
*1431 g12515__6417
*1432 g12517__5477
*1433 g12518__2398
*1434 g12467
*1435 u_extract_count_reg\[0\]
*1436 g12438
*1437 g12440
*1438 g12441
*1439 g12442
*1440 g12443
*1441 g12444
*1442 g12445
*1443 g12446
*1444 g12448
*1445 g12449
*1446 g12450
*1447 g12447
*1448 g12451
*1449 u_extract_count_reg\[1\]
*1450 g12535__5107
*1451 g12556__6260
*1452 g12465__4319
*1453 g12543__8428
*1454 g12540__5526
*1455 g12474
*1456 g12536__6783
*1457 g12464__3680
*1458 u_traceback_temp_data_reg\[0\]
*1459 g12566__1617
*1460 g12545__2802
*1461 u_traceback_temp_data_reg\[2\]
*1462 u_traceback_temp_data_reg\[3\]
*1463 u_traceback_temp_data_reg\[6\]
*1464 g12472__1705
*1465 g12455__8246
*1466 g12463__7098
*1467 g12537__6131
*1468 g12541__1881
*1469 g12475
*1470 g12462__5115
*1471 g12452__7482
*1472 g12453__4733
*1473 g12454__6161
*1474 g12461__9315
*1475 g12456__9945
*1476 g12457__2883
*1477 g12458__2346
*1478 g12459__1666
*1479 g12460__7410
*1480 u_traceback_temp_data_reg\[4\]
*1481 u_traceback_temp_data_reg\[5\]
*1482 u_traceback_temp_data_reg\[1\]
*1483 g12481__6417
*1484 g12480__5477
*1485 u_traceback_o_data_reg\[7\]
*1486 u_traceback_o_data_reg\[1\]
*1487 u_traceback_count_reg\[0\]
*1488 g12553__6260
*1489 g12552__4319
*1490 u_traceback_o_data_reg\[2\]
*1491 u_traceback_o_data_reg\[6\]
*1492 u_traceback_o_data_reg\[4\]
*1493 u_traceback_o_data_reg\[3\]
*1494 u_traceback_o_data_reg\[0\]
*1495 u_traceback_o_data_reg\[5\]
*1496 g12572__8428
*1497 g12549__5526
*1498 g12550__6783
*1499 g12551__3680
*1500 g12554__1617
*1501 g12555__2802
*1502 g12558__1705
*1503 g12560__5122
*1504 g12561__8246
*1505 g12562__7098
*1506 g12563__6131
*1507 g12564__1881
*1508 u_extract_o_valid_reg
*1509 g12567__5115
*1510 g12593__7482
*1511 g12574__4733
*1512 g12575__6161
*1513 g12576__9315
*1514 g12577__9945
*1515 g12578__2883
*1516 g12579__2346
*1517 g12580__1666
*1518 g12581__7410
*1519 g12582__6417
*1520 g12583__5477
*1521 g12585__2398
*1522 g12584__5107
*1523 g12573__6260
*1524 g12586__4319
*1525 g12557__8428
*1526 g12591__5526
*1527 g12571__6783
*1528 u_extract_count_reg\[2\]
*1529 g12587__3680
*1530 g12589__1617
*1531 g12565__2802
*1532 g12592__1705
*1533 g12599
*1534 g12601__5122
*1535 g12594__8246
*1536 g12588__7098
*1537 g12590__6131
*1538 g12597__5115
*1539 u_traceback_tracing_reg
*1540 g12602__7482
*1541 g12544__4733
*1542 g12559__6161
*1543 g12547__9315
*1544 g12548__9945
*1545 g12603__2883
*1546 g12600__2346
*1547 g12606
*1548 g12611__1666
*1549 g12596__7410
*1550 g12608
*1551 g12542__6417
*1552 g12614__5477
*1553 g12625
*1554 g12615__5107
*1555 g12619__6260
*1556 g12618__4319
*1557 g12621__8428
*1558 g12637__5526
*1559 g12624__6783
*1560 g12595__3680
*1561 g12609__1617
*1562 g12626
*1563 g12612__2802
*1564 g12620__1705
*1565 g12638__5122
*1566 g12639__8246
*1567 g12641__7098
*1568 g12642__6131
*1569 g12607
*1570 u_memory_o_memory_done_reg
*1571 g12630__1881
*1572 g12613__5115
*1573 g12610__7482
*1574 g12632__4733
*1575 g12634__6161
*1576 g12617__9945
*1577 g12569__2883
*1578 g12623__2346
*1579 g12658
*1580 g12631__1666
*1581 g12627__7410
*1582 g12622__6417
*1583 g12616__5477
*1584 g12640__2398
*1585 g12636__5107
*1586 g12644
*1587 g12647__6260
*1588 g12629__8428
*1589 g12649__5526
*1590 g12633__6783
*1591 g12652__3680
*1592 g12654__1617
*1593 g12653__2802
*1594 g12656__1705
*1595 g12648__5122
*1596 g12661__8246
*1597 g12646__7098
*1598 g12650__6131
*1599 g12651__1881
*1600 g12664__5115
*1601 g12662__7482
*1602 g12669__4733
*1603 g12659__6161
*1604 g12665__9315
*1605 g12666__9945
*1606 g12670__2883
*1607 g12660__2346
*1608 g12667__1666
*1609 u_acs_o_valid_d1_reg
*1610 g12668__7410
*1611 u_extract_o_sof_reg
*1612 g12706
*1613 g12831
*1614 g12832
*1615 g12833
*1616 g12835
*1617 g12838
*1618 g12839
*1619 g12841


*PORTS

*105 I *C 0 31.47
*106 I *C 0 44.89
*107 I *C 0 58.31
*108 I *C 152.26 39.4
*109 I *C 152.26 52.82
*110 I *C 152.26 66.24
*111 I *C 152.26 79.66
*112 I *C 152.26 93.08
*113 I *C 152.26 106.5
*114 I *C 113.62 144.44
*115 I *C 98.44 144.44
*116 I *C 83.26 144.44
*117 I *C 68.08 144.44
*118 I *C 52.9 144.44
*119 I *C 37.72 144.44
*120 I *C 0 111.99
*121 I *C 0 98.57
*122 I *C 0 85.15
*123 I *C 0 71.73
*124 O *C 15.64 0
*125 O *C 30.82 0
*126 O *C 46 0
*127 O *C 61.18 0
*128 O *C 76.36 0
*129 O *C 91.54 0
*130 O *C 106.72 0
*131 O *C 121.9 0
*132 O *C 137.08 0


*D_NET *1 0.00259055

*CONN
*I *1422:B I *C 61.63999939 65.31999969 *L 0.00317 *D NAND2X1
*I *885:Y O *C 71.30000305 64.86000061 *L 0 *D CLKINVX2

*CAP
1 *1:0 2.3055e-05
2 *1:1 0.000488998
3 *1:2 2.3055e-05
4 *1:3 0.000561048
5 *1:5 0.000561048
6 *1:6 0.000488998
7 *1:7 5.91745e-05
8 *1:8 5.91745e-05
9 *1:9 0.000162999
10 *885:Y 0.000162999

*RES
1 *1:9 *885:Y 0.188325
2 *1:8 *1:9 4.5
3 *1:7 *1:8 0.51041
4 *1:6 *1:7 3.41
5 *1:5 *1:6 0.564976
6 *1:3 *1:5 0.0832452
7 *1:2 *1422:B 4.5
8 *1:1 *1:3 0.564976
9 *1:0 *1:2 0.198861
10 *1:0 *1:1 3.41
*END

*D_NET *2 0.000525558

*CONN
*I *966:A I *C 116.3799973 120.0599976 *L 0.00567 *D NOR2X2
*I *892:Y O *C 115.9199982 122.8199997 *L 0 *D CLKINVX2

*CAP
1 *2:0 5.28232e-05
2 *2:1 0.000209956
3 *966:A 5.28232e-05
4 *2:3 0.000209956

*RES
1 *2:3 *892:Y 4.5
2 *2:1 *2:3 1.88291
3 *2:0 *966:A 0.0669965
4 *2:0 *2:1 4.5
*END

*D_NET *3 0.00041651

*CONN
*I *904:Y O *C 72.68000031 116.8399963 *L 0 *D NAND2X1
*I *905:B0 I *C 74.98000336 115 *L 0.00315 *D OAI21X1

*CAP
1 *904:Y 0.000104277
2 *3:1 0.000104277
3 *3:2 6.93183e-05
4 *3:3 0.000103977
5 *3:4 3.46592e-05

*RES
1 *3:4 *905:B0 4.5
2 *3:3 *3:4 0.321681
3 *3:2 *3:3 0.643362
4 *3:1 *3:2 4.5
5 *904:Y *3:1 0.13034
*END

*D_NET *4 0.00309992

*CONN
*I *908:Y O *C 107.6399994 81.41999817 *L 0 *D BUFX2
*I *1122:C0 I *C 109.4800034 73.59999847 *L 0.00316 *D AOI222X1
*I *957:A1 I *C 110.8600006 86.94000244 *L 0.00568 *D OAI222X2

*CAP
1 *908:Y 0.000105646
2 *4:1 0.000105646
3 *4:2 0.000174963
4 *4:3 0.000339955
5 *4:4 0.000139971
6 *4:5 0.000286636
7 *4:6 0.000139971
8 *4:7 0.000249981
9 *4:8 0.000174963
10 *4:9 0.000349973
11 *4:10 0.000104978
12 *4:11 0.000283312
13 *4:12 6.99853e-05
14 *4:13 0.000299977
15 *4:14 3.49927e-05
16 *4:15 0.000133323